
Spectre (R) Circuit Simulator
Version 17.1.0.627.isr15 64bit -- 9 May 2019
Copyright (C) 1989-2018 Cadence Design Systems, Inc. All rights reserved
        worldwide. Cadence and Spectre are registered trademarks of Cadence
        Design Systems, Inc. All others are the property of their respective
        holders.

Includes RSA BSAFE(R) Cryptographic or Security Protocol Software from RSA
        Security, Inc.

User: kwilli29   Host: student04   HostID: 4A817C98   PID: 23975
Memory  available: 12.6284 GB  physical: 33.4384 GB
sh: lsb_release: command not found
CPU Type: Intel(R) Xeon(R) CPU E5-2620 v4 @ 2.10GHz
        Socket: Processors [Frequency] (Hyperthreaded Processor)
        0:       0 [2687.2] ( 16 ),  1 [2875.5] ( 17 ),  2 [2712.0] ( 18 )
                 3 [2589.0] ( 19 ),  4 [2784.6] ( 20 ),  5 [2689.3] ( 21 )
                 6 [2760.7] ( 22 ),  7 [2931.8] ( 23 )
        1:       8 [2906.3] ( 24 ),  9 [2773.7] ( 25 ), 10 [2765.7] ( 26 )
                11 [2753.9] ( 27 ), 12 [2741.6] ( 28 ), 13 [2598.6] ( 29 )
                14 [2801.0] ( 30 ), 15 [2746.4] ( 31 )
        
System load averages (1min, 5min, 15min) : 6.3 %, 6.3 %, 6.4 %
Hyperthreading is enabled


Simulating `si.inp' on student04 at 12:09:21 AM, Thur Oct 13, 2022 (process id:
        23975).
Current working directory:
        /escnfs/courses/fa22-cse-40462.01/dropbox/kwilli29/VLSI/spectre.lab3.part2
Command line:
     \
        /escnfs/home/csesoft/cadence/installs/SPECTRE171/tools.lnx86/bin/spectre
        \
        -64 si.inp
Reading file: 
        /escnfs/courses/fa22-cse-40462.01/dropbox/kwilli29/VLSI/spectre.lab3.part2/si.inp
Reading file: 
        /escnfs/home/csesoft/cadence/installs/SPECTRE171/tools.lnx86/spectre/etc/configs/mapsubckt.cfg
Reading file: 
        /escnfs/home/csesoft/cadence/installs/SPECTRE171/tools.lnx86/spectre/etc/configs/spectre.cfg
Reading file:  /usr/include/stdc-predef.h
Reading file: 
        /escnfs/home/csesoft/cadence/installs/NCSU/ncsu-cdk-1.6.0.beta/models/spectre/standalone/ami06N.m
Reading file: 
        /escnfs/home/csesoft/cadence/installs/NCSU/ncsu-cdk-1.6.0.beta/models/spectre/standalone/ami06P.m

Error found by spectre during circuit read-in.
    ERROR (SFE-874): "si.inp" 25: 24: Unexpected operator "-". Expected block
        statement, end of file or end of line. Cannot run the simulation
        because of syntax error. Correct the error and rerun the simulation.

Time for NDB Parsing: CPU = 83.962 ms, elapsed = 142.668 ms.
Time accumulated: CPU = 124.078 ms, elapsed = 142.675 ms.
Peak resident memory used = 48.7 Mbytes.


Aggregate audit (12:09:21 AM, Thur Oct 13, 2022):
Time used: CPU = 124 ms, elapsed = 143 ms, util. = 87%.
Time spent in licensing: elapsed = 15.5 ms, percentage of total = 10.9%.
Peak memory used = 48.8 Mbytes.
Simulation started at: 12:09:21 AM, Thur Oct 13, 2022, ended at: 12:09:21 AM,
        Thur Oct 13, 2022, with elapsed time (wall clock): 143 ms.
spectre completes with 1 error, 0 warnings, and 0 notices.
spectre terminated prematurely due to fatal error.
